Circuit: * C:\Users\BZeroL\OneDrive - ITBA\Education\ITBA\ITBA - Me\2023A\Electronica IV\TPs\TP1\Simulacion\TP1.asc

Direct Newton iteration for .op point succeeded.

Date: Tue Mar 28 18:50:45 2023
Total elapsed time: 26.778 seconds.

tnom = 27
temp = 27
method = modified trap
totiter = 9371199
traniter = 9371164
tranpoints = 4074504
accept = 4066528
rejected = 7976
matrix size = 26
fillins = 9
solver = Normal
Matrix Compiler1:     124 opcodes  0.5/[0.2]/0.3
Matrix Compiler2: off  [0.2]/0.3/0.2

