Circuit: * C:\Users\BZeroL\OneDrive - ITBA\Education\ITBA\ITBA - Me\2023A\Electronica IV\TPs\GitHub\TP1-Convertidores-DC-DC-MOS\Simulacion\TP1.asc

Direct Newton iteration for .op point succeeded.

Date: Fri Apr 21 12:17:10 2023
Total elapsed time: 34.070 seconds.

tnom = 27
temp = 27
method = modified trap
totiter = 9477783
traniter = 9477748
tranpoints = 4063014
accept = 4059493
rejected = 3521
matrix size = 29
fillins = 11
solver = Normal
Matrix Compiler1:     135 opcodes  0.6/[0.3]/0.3
Matrix Compiler2: off  [0.2]/0.3/0.3

