Circuit: * C:\Users\carlo\OneDrive\Escritorio\2023_1C\E4\TPs\TP1\TP1-Convertidores-DC-DC-MOS\Simulacion\TP1.asc

Direct Newton iteration for .op point succeeded.

Date: Mon Apr 10 18:29:55 2023
Total elapsed time: 51.010 seconds.

tnom = 27
temp = 27
method = modified trap
totiter = 9477783
traniter = 9477748
tranpoints = 4063014
accept = 4059493
rejected = 3521
matrix size = 29
fillins = 11
solver = Normal
Matrix Compiler1: 2.38 KB object code size  0.5/0.4/[0.3]
Matrix Compiler2: off  [0.4]/0.6/0.5

