Circuit: * D:\00 - ITBA\Electrónica 4\Trabajos Prácticos\TP1-Convertidores-DC-DC-MOS\SIM2\Circuito Ideal.asc

Warning: Multiple definitions of model "2scr375p" Type: BJT
Warning: Multiple definitions of model "bc857b" Type: BJT
Warning: Multiple definitions of model "bc847c" Type: BJT
Warning: Multiple definitions of model "bc847b" Type: BJT
Direct Newton iteration for .op point succeeded.

Date: Wed Apr 19 19:53:24 2023
Total elapsed time: 10.129 seconds.

tnom = 27
temp = 27
method = modified trap
totiter = 1865907
traniter = 1865875
tranpoints = 695606
accept = 522675
rejected = 172931
matrix size = 27
fillins = 7
solver = Normal
Avg thread counts: 1.0/1.0/1.0/1.0
Matrix Compiler1: 2.10 KB object code size  0.9/0.7/[0.3]
Matrix Compiler2: 2.27 KB object code size  0.4/0.7/[0.3]

