Circuit: * D:\00 - ITBA\Electrónica 4\Trabajos Prácticos\Circuito Ideal.asc

Warning: Multiple definitions of model "2scr375p" Type: BJT
Warning: Multiple definitions of model "bc857b" Type: BJT
Warning: Multiple definitions of model "bc847c" Type: BJT
Warning: Multiple definitions of model "bc847b" Type: BJT
Direct Newton iteration for .op point succeeded.

Date: Fri Mar 31 15:01:09 2023
Total elapsed time: 3.627 seconds.

tnom = 27
temp = 27
method = modified trap
totiter = 1021753
traniter = 1021722
tranpoints = 357090
accept = 263418
rejected = 93672
matrix size = 28
fillins = 9
solver = Normal
Avg thread counts: 1.0/1.0/1.0/1.0
Matrix Compiler1: 2.27 KB object code size  0.5/0.8/[0.3]
Matrix Compiler2: 2.37 KB object code size  0.5/0.9/[0.3]

